<routes>
        <vType id="typeWE" accel="0.8" decel="4.5" sigma="0.5" length="5" minGap="2.5" maxSpeed="16.67" guiShape="passenger"/>
        <vType id="typeNS" accel="0.8" decel="4.5" sigma="0.5" length="7" minGap="3" maxSpeed="25" guiShape="bus"/>

        <route id="right" edges="51o 1i 2o 52i" />
        <route id="left" edges="52o 2i 1o 51i" />
        <route id="down" edges="54o 4i 3o 53i" />
        <route id="up" edges="53o 3i 4o 54i" />
    <vehicle id="left_0" type="typeWE" route="left" depart="0" />
    <vehicle id="left_1" type="typeWE" route="left" depart="2" />
    <vehicle id="right_2" type="typeWE" route="right" depart="3" />
    <vehicle id="up_3" type="typeNS" route="up" depart="4" color="0,1,0"/>
    <vehicle id="left_4" type="typeWE" route="left" depart="10" />
    <vehicle id="right_5" type="typeWE" route="right" depart="11" />
    <vehicle id="up_6" type="typeNS" route="up" depart="16" color="0,1,0"/>
    <vehicle id="right_7" type="typeWE" route="right" depart="22" />
    <vehicle id="left_8" type="typeWE" route="left" depart="22" />
    <vehicle id="right_9" type="typeWE" route="right" depart="25" />
    <vehicle id="right_10" type="typeWE" route="right" depart="31" />
    <vehicle id="down_11" type="typeNS" route="down" depart="31" color="1,0,0"/>
    <vehicle id="right_12" type="typeWE" route="right" depart="34" />
    <vehicle id="right_13" type="typeWE" route="right" depart="40" />
    <vehicle id="left_14" type="typeWE" route="left" depart="41" />
    <vehicle id="right_15" type="typeWE" route="right" depart="44" />
    <vehicle id="left_16" type="typeWE" route="left" depart="49" />
    <vehicle id="right_17" type="typeWE" route="right" depart="56" />
    <vehicle id="right_18" type="typeWE" route="right" depart="63" />
    <vehicle id="right_19" type="typeWE" route="right" depart="64" />
    <vehicle id="left_20" type="typeWE" route="left" depart="67" />
    <vehicle id="down_21" type="typeNS" route="down" depart="72" color="1,0,0"/>
    <vehicle id="left_22" type="typeWE" route="left" depart="74" />
    <vehicle id="right_23" type="typeWE" route="right" depart="81" />
    <vehicle id="down_24" type="typeNS" route="down" depart="85" color="1,0,0"/>
    <vehicle id="right_25" type="typeWE" route="right" depart="92" />
    <vehicle id="down_26" type="typeNS" route="down" depart="98" color="1,0,0"/>
    <vehicle id="up_27" type="typeNS" route="up" depart="103" color="0,1,0"/>
    <vehicle id="up_28" type="typeNS" route="up" depart="106" color="0,1,0"/>
    <vehicle id="right_29" type="typeWE" route="right" depart="115" />
    <vehicle id="left_30" type="typeWE" route="left" depart="117" />
    <vehicle id="left_31" type="typeWE" route="left" depart="120" />
    <vehicle id="left_32" type="typeWE" route="left" depart="123" />
    <vehicle id="left_33" type="typeWE" route="left" depart="125" />
    <vehicle id="right_34" type="typeWE" route="right" depart="126" />
    <vehicle id="right_35" type="typeWE" route="right" depart="127" />
    <vehicle id="left_36" type="typeWE" route="left" depart="129" />
    <vehicle id="down_37" type="typeNS" route="down" depart="129" color="1,0,0"/>
    <vehicle id="right_38" type="typeWE" route="right" depart="132" />
    <vehicle id="up_39" type="typeNS" route="up" depart="135" color="0,1,0"/>
    <vehicle id="left_40" type="typeWE" route="left" depart="137" />
    <vehicle id="left_41" type="typeWE" route="left" depart="147" />
    <vehicle id="down_42" type="typeNS" route="down" depart="149" color="1,0,0"/>
    <vehicle id="right_43" type="typeWE" route="right" depart="150" />
    <vehicle id="right_44" type="typeWE" route="right" depart="152" />
    <vehicle id="left_45" type="typeWE" route="left" depart="159" />
    <vehicle id="right_46" type="typeWE" route="right" depart="164" />
    <vehicle id="down_47" type="typeNS" route="down" depart="164" color="1,0,0"/>
    <vehicle id="right_48" type="typeWE" route="right" depart="171" />
    <vehicle id="right_49" type="typeWE" route="right" depart="179" />
    <vehicle id="right_50" type="typeWE" route="right" depart="180" />
    <vehicle id="right_51" type="typeWE" route="right" depart="182" />
    <vehicle id="left_52" type="typeWE" route="left" depart="204" />
    <vehicle id="down_53" type="typeNS" route="down" depart="206" color="1,0,0"/>
    <vehicle id="right_54" type="typeWE" route="right" depart="213" />
    <vehicle id="right_55" type="typeWE" route="right" depart="216" />
    <vehicle id="left_56" type="typeWE" route="left" depart="218" />
    <vehicle id="down_57" type="typeNS" route="down" depart="220" color="1,0,0"/>
    <vehicle id="right_58" type="typeWE" route="right" depart="227" />
    <vehicle id="left_59" type="typeWE" route="left" depart="232" />
    <vehicle id="right_60" type="typeWE" route="right" depart="239" />
    <vehicle id="down_61" type="typeNS" route="down" depart="241" color="1,0,0"/>
    <vehicle id="right_62" type="typeWE" route="right" depart="245" />
    <vehicle id="up_63" type="typeNS" route="up" depart="248" color="0,1,0"/>
    <vehicle id="right_64" type="typeWE" route="right" depart="250" />
    <vehicle id="left_65" type="typeWE" route="left" depart="253" />
    <vehicle id="down_66" type="typeNS" route="down" depart="256" color="1,0,0"/>
    <vehicle id="left_67" type="typeWE" route="left" depart="258" />
    <vehicle id="down_68" type="typeNS" route="down" depart="258" color="1,0,0"/>
    <vehicle id="left_69" type="typeWE" route="left" depart="262" />
    <vehicle id="left_70" type="typeWE" route="left" depart="265" />
    <vehicle id="right_71" type="typeWE" route="right" depart="266" />
    <vehicle id="left_72" type="typeWE" route="left" depart="281" />
    <vehicle id="left_73" type="typeWE" route="left" depart="283" />
    <vehicle id="up_74" type="typeNS" route="up" depart="284" color="0,1,0"/>
    <vehicle id="right_75" type="typeWE" route="right" depart="287" />
    <vehicle id="left_76" type="typeWE" route="left" depart="287" />
    <vehicle id="left_77" type="typeWE" route="left" depart="291" />
    <vehicle id="right_78" type="typeWE" route="right" depart="292" />
    <vehicle id="down_79" type="typeNS" route="down" depart="293" color="1,0,0"/>
    <vehicle id="right_80" type="typeWE" route="right" depart="296" />
    <vehicle id="left_81" type="typeWE" route="left" depart="296" />
    <vehicle id="left_82" type="typeWE" route="left" depart="298" />
    <vehicle id="right_83" type="typeWE" route="right" depart="309" />
    <vehicle id="right_84" type="typeWE" route="right" depart="310" />
    <vehicle id="right_85" type="typeWE" route="right" depart="311" />
    <vehicle id="left_86" type="typeWE" route="left" depart="315" />
    <vehicle id="right_87" type="typeWE" route="right" depart="320" />
    <vehicle id="right_88" type="typeWE" route="right" depart="329" />
    <vehicle id="down_89" type="typeNS" route="down" depart="330" color="1,0,0"/>
    <vehicle id="left_90" type="typeWE" route="left" depart="343" />
    <vehicle id="down_91" type="typeNS" route="down" depart="343" color="1,0,0"/>
    <vehicle id="up_92" type="typeNS" route="up" depart="344" color="0,1,0"/>
    <vehicle id="up_93" type="typeNS" route="up" depart="347" color="0,1,0"/>
    <vehicle id="right_94" type="typeWE" route="right" depart="348" />
    <vehicle id="left_95" type="typeWE" route="left" depart="350" />
    <vehicle id="right_96" type="typeWE" route="right" depart="352" />
    <vehicle id="left_97" type="typeWE" route="left" depart="354" />
    <vehicle id="left_98" type="typeWE" route="left" depart="357" />
    <vehicle id="left_99" type="typeWE" route="left" depart="359" />
    <vehicle id="down_100" type="typeNS" route="down" depart="362" color="1,0,0"/>
    <vehicle id="right_101" type="typeWE" route="right" depart="363" />
    <vehicle id="left_102" type="typeWE" route="left" depart="369" />
    <vehicle id="left_103" type="typeWE" route="left" depart="372" />
    <vehicle id="right_104" type="typeWE" route="right" depart="374" />
    <vehicle id="left_105" type="typeWE" route="left" depart="376" />
    <vehicle id="right_106" type="typeWE" route="right" depart="389" />
    <vehicle id="left_107" type="typeWE" route="left" depart="392" />
    <vehicle id="down_108" type="typeNS" route="down" depart="395" color="1,0,0"/>
    <vehicle id="right_109" type="typeWE" route="right" depart="402" />
    <vehicle id="left_110" type="typeWE" route="left" depart="402" />
    <vehicle id="right_111" type="typeWE" route="right" depart="406" />
    <vehicle id="left_112" type="typeWE" route="left" depart="406" />
    <vehicle id="left_113" type="typeWE" route="left" depart="414" />
    <vehicle id="left_114" type="typeWE" route="left" depart="430" />
    <vehicle id="up_115" type="typeNS" route="up" depart="433" color="0,1,0"/>
    <vehicle id="down_116" type="typeNS" route="down" depart="434" color="1,0,0"/>
    <vehicle id="down_117" type="typeNS" route="down" depart="450" color="1,0,0"/>
    <vehicle id="up_118" type="typeNS" route="up" depart="451" color="0,1,0"/>
    <vehicle id="right_119" type="typeWE" route="right" depart="459" />
    <vehicle id="down_120" type="typeNS" route="down" depart="468" color="1,0,0"/>
    <vehicle id="left_121" type="typeWE" route="left" depart="469" />
    <vehicle id="right_122" type="typeWE" route="right" depart="477" />
    <vehicle id="right_123" type="typeWE" route="right" depart="481" />
    <vehicle id="right_124" type="typeWE" route="right" depart="483" />
    <vehicle id="left_125" type="typeWE" route="left" depart="484" />
    <vehicle id="up_126" type="typeNS" route="up" depart="484" color="0,1,0"/>
    <vehicle id="left_127" type="typeWE" route="left" depart="490" />
    <vehicle id="down_128" type="typeNS" route="down" depart="490" color="1,0,0"/>
    <vehicle id="down_129" type="typeNS" route="down" depart="494" color="1,0,0"/>
    <vehicle id="left_130" type="typeWE" route="left" depart="495" />
    <vehicle id="right_131" type="typeWE" route="right" depart="496" />
    <vehicle id="right_132" type="typeWE" route="right" depart="501" />
    <vehicle id="down_133" type="typeNS" route="down" depart="512" color="1,0,0"/>
    <vehicle id="right_134" type="typeWE" route="right" depart="517" />
    <vehicle id="right_135" type="typeWE" route="right" depart="528" />
    <vehicle id="right_136" type="typeWE" route="right" depart="530" />
    <vehicle id="down_137" type="typeNS" route="down" depart="530" color="1,0,0"/>
    <vehicle id="down_138" type="typeNS" route="down" depart="531" color="1,0,0"/>
    <vehicle id="right_139" type="typeWE" route="right" depart="533" />
    <vehicle id="right_140" type="typeWE" route="right" depart="538" />
    <vehicle id="left_141" type="typeWE" route="left" depart="538" />
    <vehicle id="right_142" type="typeWE" route="right" depart="540" />
    <vehicle id="down_143" type="typeNS" route="down" depart="540" color="1,0,0"/>
    <vehicle id="right_144" type="typeWE" route="right" depart="542" />
    <vehicle id="right_145" type="typeWE" route="right" depart="543" />
    <vehicle id="right_146" type="typeWE" route="right" depart="545" />
    <vehicle id="left_147" type="typeWE" route="left" depart="548" />
    <vehicle id="left_148" type="typeWE" route="left" depart="550" />
    <vehicle id="left_149" type="typeWE" route="left" depart="555" />
    <vehicle id="down_150" type="typeNS" route="down" depart="557" color="1,0,0"/>
    <vehicle id="right_151" type="typeWE" route="right" depart="558" />
    <vehicle id="right_152" type="typeWE" route="right" depart="562" />
    <vehicle id="right_153" type="typeWE" route="right" depart="563" />
    <vehicle id="left_154" type="typeWE" route="left" depart="576" />
    <vehicle id="down_155" type="typeNS" route="down" depart="582" color="1,0,0"/>
    <vehicle id="down_156" type="typeNS" route="down" depart="585" color="1,0,0"/>
    <vehicle id="up_157" type="typeNS" route="up" depart="593" color="0,1,0"/>
    <vehicle id="right_158" type="typeWE" route="right" depart="596" />
    <vehicle id="right_159" type="typeWE" route="right" depart="601" />
    <vehicle id="right_160" type="typeWE" route="right" depart="606" />
    <vehicle id="down_161" type="typeNS" route="down" depart="606" color="1,0,0"/>
    <vehicle id="right_162" type="typeWE" route="right" depart="609" />
    <vehicle id="left_163" type="typeWE" route="left" depart="609" />
    <vehicle id="left_164" type="typeWE" route="left" depart="613" />
    <vehicle id="right_165" type="typeWE" route="right" depart="629" />
    <vehicle id="right_166" type="typeWE" route="right" depart="634" />
    <vehicle id="up_167" type="typeNS" route="up" depart="635" color="0,1,0"/>
    <vehicle id="up_168" type="typeNS" route="up" depart="640" color="0,1,0"/>
    <vehicle id="right_169" type="typeWE" route="right" depart="642" />
    <vehicle id="up_170" type="typeNS" route="up" depart="646" color="0,1,0"/>
    <vehicle id="right_171" type="typeWE" route="right" depart="649" />
    <vehicle id="left_172" type="typeWE" route="left" depart="651" />
    <vehicle id="down_173" type="typeNS" route="down" depart="654" color="1,0,0"/>
    <vehicle id="left_174" type="typeWE" route="left" depart="659" />
    <vehicle id="right_175" type="typeWE" route="right" depart="660" />
    <vehicle id="left_176" type="typeWE" route="left" depart="660" />
    <vehicle id="right_177" type="typeWE" route="right" depart="662" />
    <vehicle id="left_178" type="typeWE" route="left" depart="665" />
    <vehicle id="left_179" type="typeWE" route="left" depart="666" />
    <vehicle id="up_180" type="typeNS" route="up" depart="671" color="0,1,0"/>
    <vehicle id="left_181" type="typeWE" route="left" depart="673" />
    <vehicle id="left_182" type="typeWE" route="left" depart="676" />
    <vehicle id="left_183" type="typeWE" route="left" depart="680" />
    <vehicle id="left_184" type="typeWE" route="left" depart="682" />
    <vehicle id="up_185" type="typeNS" route="up" depart="683" color="0,1,0"/>
    <vehicle id="right_186" type="typeWE" route="right" depart="687" />
    <vehicle id="up_187" type="typeNS" route="up" depart="688" color="0,1,0"/>
    <vehicle id="left_188" type="typeWE" route="left" depart="693" />
    <vehicle id="left_189" type="typeWE" route="left" depart="694" />
    <vehicle id="left_190" type="typeWE" route="left" depart="697" />
    <vehicle id="left_191" type="typeWE" route="left" depart="704" />
    <vehicle id="left_192" type="typeWE" route="left" depart="706" />
    <vehicle id="right_193" type="typeWE" route="right" depart="709" />
    <vehicle id="left_194" type="typeWE" route="left" depart="709" />
    <vehicle id="right_195" type="typeWE" route="right" depart="711" />
    <vehicle id="down_196" type="typeNS" route="down" depart="712" color="1,0,0"/>
    <vehicle id="left_197" type="typeWE" route="left" depart="714" />
    <vehicle id="left_198" type="typeWE" route="left" depart="721" />
    <vehicle id="right_199" type="typeWE" route="right" depart="724" />
    <vehicle id="left_200" type="typeWE" route="left" depart="727" />
    <vehicle id="right_201" type="typeWE" route="right" depart="730" />
    <vehicle id="right_202" type="typeWE" route="right" depart="731" />
    <vehicle id="right_203" type="typeWE" route="right" depart="733" />
    <vehicle id="up_204" type="typeNS" route="up" depart="741" color="0,1,0"/>
    <vehicle id="right_205" type="typeWE" route="right" depart="745" />
    <vehicle id="down_206" type="typeNS" route="down" depart="747" color="1,0,0"/>
    <vehicle id="right_207" type="typeWE" route="right" depart="751" />
    <vehicle id="left_208" type="typeWE" route="left" depart="752" />
    <vehicle id="up_209" type="typeNS" route="up" depart="754" color="0,1,0"/>
    <vehicle id="left_210" type="typeWE" route="left" depart="758" />
    <vehicle id="up_211" type="typeNS" route="up" depart="760" color="0,1,0"/>
    <vehicle id="right_212" type="typeWE" route="right" depart="763" />
    <vehicle id="left_213" type="typeWE" route="left" depart="766" />
    <vehicle id="left_214" type="typeWE" route="left" depart="782" />
    <vehicle id="down_215" type="typeNS" route="down" depart="783" color="1,0,0"/>
    <vehicle id="left_216" type="typeWE" route="left" depart="785" />
    <vehicle id="down_217" type="typeNS" route="down" depart="792" color="1,0,0"/>
    <vehicle id="up_218" type="typeNS" route="up" depart="795" color="0,1,0"/>
    <vehicle id="right_219" type="typeWE" route="right" depart="801" />
    <vehicle id="up_220" type="typeNS" route="up" depart="801" color="0,1,0"/>
    <vehicle id="up_221" type="typeNS" route="up" depart="802" color="0,1,0"/>
    <vehicle id="right_222" type="typeWE" route="right" depart="814" />
    <vehicle id="right_223" type="typeWE" route="right" depart="823" />
    <vehicle id="down_224" type="typeNS" route="down" depart="824" color="1,0,0"/>
    <vehicle id="left_225" type="typeWE" route="left" depart="828" />
    <vehicle id="right_226" type="typeWE" route="right" depart="830" />
    <vehicle id="down_227" type="typeNS" route="down" depart="831" color="1,0,0"/>
    <vehicle id="left_228" type="typeWE" route="left" depart="832" />
    <vehicle id="left_229" type="typeWE" route="left" depart="841" />
    <vehicle id="left_230" type="typeWE" route="left" depart="842" />
    <vehicle id="left_231" type="typeWE" route="left" depart="843" />
    <vehicle id="left_232" type="typeWE" route="left" depart="850" />
    <vehicle id="down_233" type="typeNS" route="down" depart="851" color="1,0,0"/>
    <vehicle id="right_234" type="typeWE" route="right" depart="853" />
    <vehicle id="right_235" type="typeWE" route="right" depart="857" />
    <vehicle id="down_236" type="typeNS" route="down" depart="857" color="1,0,0"/>
    <vehicle id="left_237" type="typeWE" route="left" depart="865" />
    <vehicle id="left_238" type="typeWE" route="left" depart="867" />
    <vehicle id="left_239" type="typeWE" route="left" depart="874" />
    <vehicle id="left_240" type="typeWE" route="left" depart="875" />
    <vehicle id="left_241" type="typeWE" route="left" depart="879" />
    <vehicle id="right_242" type="typeWE" route="right" depart="886" />
    <vehicle id="left_243" type="typeWE" route="left" depart="892" />
    <vehicle id="right_244" type="typeWE" route="right" depart="906" />
    <vehicle id="right_245" type="typeWE" route="right" depart="909" />
    <vehicle id="up_246" type="typeNS" route="up" depart="913" color="0,1,0"/>
    <vehicle id="down_247" type="typeNS" route="down" depart="921" color="1,0,0"/>
    <vehicle id="left_248" type="typeWE" route="left" depart="924" />
    <vehicle id="right_249" type="typeWE" route="right" depart="928" />
    <vehicle id="up_250" type="typeNS" route="up" depart="934" color="0,1,0"/>
    <vehicle id="right_251" type="typeWE" route="right" depart="935" />
    <vehicle id="right_252" type="typeWE" route="right" depart="939" />
    <vehicle id="left_253" type="typeWE" route="left" depart="939" />
    <vehicle id="down_254" type="typeNS" route="down" depart="941" color="1,0,0"/>
    <vehicle id="left_255" type="typeWE" route="left" depart="950" />
    <vehicle id="left_256" type="typeWE" route="left" depart="956" />
    <vehicle id="right_257" type="typeWE" route="right" depart="961" />
    <vehicle id="left_258" type="typeWE" route="left" depart="966" />
    <vehicle id="up_259" type="typeNS" route="up" depart="966" color="0,1,0"/>
    <vehicle id="left_260" type="typeWE" route="left" depart="967" />
    <vehicle id="right_261" type="typeWE" route="right" depart="976" />
    <vehicle id="down_262" type="typeNS" route="down" depart="976" color="1,0,0"/>
    <vehicle id="right_263" type="typeWE" route="right" depart="978" />
    <vehicle id="left_264" type="typeWE" route="left" depart="988" />
    <vehicle id="down_265" type="typeNS" route="down" depart="988" color="1,0,0"/>
    <vehicle id="down_266" type="typeNS" route="down" depart="989" color="1,0,0"/>
    <vehicle id="right_267" type="typeWE" route="right" depart="990" />
    <vehicle id="down_268" type="typeNS" route="down" depart="991" color="1,0,0"/>
    <vehicle id="left_269" type="typeWE" route="left" depart="999" />
    <vehicle id="down_270" type="typeNS" route="down" depart="1002" color="1,0,0"/>
    <vehicle id="right_271" type="typeWE" route="right" depart="1005" />
    <vehicle id="left_272" type="typeWE" route="left" depart="1008" />
    <vehicle id="up_273" type="typeNS" route="up" depart="1017" color="0,1,0"/>
    <vehicle id="right_274" type="typeWE" route="right" depart="1018" />
    <vehicle id="right_275" type="typeWE" route="right" depart="1019" />
    <vehicle id="down_276" type="typeNS" route="down" depart="1023" color="1,0,0"/>
    <vehicle id="left_277" type="typeWE" route="left" depart="1025" />
    <vehicle id="left_278" type="typeWE" route="left" depart="1031" />
    <vehicle id="down_279" type="typeNS" route="down" depart="1035" color="1,0,0"/>
    <vehicle id="right_280" type="typeWE" route="right" depart="1036" />
    <vehicle id="right_281" type="typeWE" route="right" depart="1038" />
    <vehicle id="right_282" type="typeWE" route="right" depart="1049" />
    <vehicle id="right_283" type="typeWE" route="right" depart="1052" />
    <vehicle id="right_284" type="typeWE" route="right" depart="1065" />
    <vehicle id="right_285" type="typeWE" route="right" depart="1071" />
    <vehicle id="up_286" type="typeNS" route="up" depart="1074" color="0,1,0"/>
    <vehicle id="right_287" type="typeWE" route="right" depart="1076" />
    <vehicle id="down_288" type="typeNS" route="down" depart="1077" color="1,0,0"/>
    <vehicle id="left_289" type="typeWE" route="left" depart="1078" />
    <vehicle id="right_290" type="typeWE" route="right" depart="1081" />
    <vehicle id="down_291" type="typeNS" route="down" depart="1087" color="1,0,0"/>
    <vehicle id="up_292" type="typeNS" route="up" depart="1088" color="0,1,0"/>
    <vehicle id="up_293" type="typeNS" route="up" depart="1089" color="0,1,0"/>
    <vehicle id="up_294" type="typeNS" route="up" depart="1090" color="0,1,0"/>
    <vehicle id="up_295" type="typeNS" route="up" depart="1097" color="0,1,0"/>
    <vehicle id="right_296" type="typeWE" route="right" depart="1098" />
    <vehicle id="left_297" type="typeWE" route="left" depart="1103" />
    <vehicle id="left_298" type="typeWE" route="left" depart="1106" />
    <vehicle id="up_299" type="typeNS" route="up" depart="1112" color="0,1,0"/>
    <vehicle id="right_300" type="typeWE" route="right" depart="1113" />
    <vehicle id="left_301" type="typeWE" route="left" depart="1114" />
    <vehicle id="right_302" type="typeWE" route="right" depart="1116" />
    <vehicle id="right_303" type="typeWE" route="right" depart="1123" />
    <vehicle id="left_304" type="typeWE" route="left" depart="1124" />
    <vehicle id="left_305" type="typeWE" route="left" depart="1125" />
    <vehicle id="left_306" type="typeWE" route="left" depart="1129" />
    <vehicle id="right_307" type="typeWE" route="right" depart="1133" />
    <vehicle id="left_308" type="typeWE" route="left" depart="1134" />
    <vehicle id="right_309" type="typeWE" route="right" depart="1137" />
    <vehicle id="right_310" type="typeWE" route="right" depart="1138" />
    <vehicle id="left_311" type="typeWE" route="left" depart="1150" />
    <vehicle id="left_312" type="typeWE" route="left" depart="1152" />
    <vehicle id="right_313" type="typeWE" route="right" depart="1154" />
    <vehicle id="right_314" type="typeWE" route="right" depart="1158" />
    <vehicle id="down_315" type="typeNS" route="down" depart="1160" color="1,0,0"/>
    <vehicle id="down_316" type="typeNS" route="down" depart="1161" color="1,0,0"/>
    <vehicle id="left_317" type="typeWE" route="left" depart="1165" />
    <vehicle id="left_318" type="typeWE" route="left" depart="1166" />
    <vehicle id="left_319" type="typeWE" route="left" depart="1169" />
    <vehicle id="left_320" type="typeWE" route="left" depart="1170" />
    <vehicle id="up_321" type="typeNS" route="up" depart="1171" color="0,1,0"/>
    <vehicle id="down_322" type="typeNS" route="down" depart="1173" color="1,0,0"/>
    <vehicle id="left_323" type="typeWE" route="left" depart="1175" />
    <vehicle id="down_324" type="typeNS" route="down" depart="1176" color="1,0,0"/>
    <vehicle id="down_325" type="typeNS" route="down" depart="1177" color="1,0,0"/>
    <vehicle id="right_326" type="typeWE" route="right" depart="1180" />
    <vehicle id="right_327" type="typeWE" route="right" depart="1182" />
    <vehicle id="down_328" type="typeNS" route="down" depart="1182" color="1,0,0"/>
    <vehicle id="right_329" type="typeWE" route="right" depart="1184" />
    <vehicle id="down_330" type="typeNS" route="down" depart="1187" color="1,0,0"/>
    <vehicle id="up_331" type="typeNS" route="up" depart="1191" color="0,1,0"/>
    <vehicle id="left_332" type="typeWE" route="left" depart="1193" />
    <vehicle id="right_333" type="typeWE" route="right" depart="1209" />
    <vehicle id="down_334" type="typeNS" route="down" depart="1209" color="1,0,0"/>
    <vehicle id="right_335" type="typeWE" route="right" depart="1211" />
    <vehicle id="left_336" type="typeWE" route="left" depart="1213" />
    <vehicle id="down_337" type="typeNS" route="down" depart="1216" color="1,0,0"/>
    <vehicle id="down_338" type="typeNS" route="down" depart="1218" color="1,0,0"/>
    <vehicle id="down_339" type="typeNS" route="down" depart="1220" color="1,0,0"/>
    <vehicle id="left_340" type="typeWE" route="left" depart="1234" />
    <vehicle id="down_341" type="typeNS" route="down" depart="1237" color="1,0,0"/>
    <vehicle id="left_342" type="typeWE" route="left" depart="1238" />
    <vehicle id="left_343" type="typeWE" route="left" depart="1252" />
    <vehicle id="down_344" type="typeNS" route="down" depart="1252" color="1,0,0"/>
    <vehicle id="right_345" type="typeWE" route="right" depart="1255" />
    <vehicle id="up_346" type="typeNS" route="up" depart="1256" color="0,1,0"/>
    <vehicle id="right_347" type="typeWE" route="right" depart="1258" />
    <vehicle id="right_348" type="typeWE" route="right" depart="1265" />
    <vehicle id="up_349" type="typeNS" route="up" depart="1267" color="0,1,0"/>
    <vehicle id="right_350" type="typeWE" route="right" depart="1271" />
    <vehicle id="down_351" type="typeNS" route="down" depart="1275" color="1,0,0"/>
    <vehicle id="right_352" type="typeWE" route="right" depart="1277" />
    <vehicle id="up_353" type="typeNS" route="up" depart="1280" color="0,1,0"/>
    <vehicle id="left_354" type="typeWE" route="left" depart="1283" />
    <vehicle id="left_355" type="typeWE" route="left" depart="1285" />
    <vehicle id="right_356" type="typeWE" route="right" depart="1294" />
    <vehicle id="right_357" type="typeWE" route="right" depart="1304" />
    <vehicle id="right_358" type="typeWE" route="right" depart="1307" />
    <vehicle id="right_359" type="typeWE" route="right" depart="1311" />
    <vehicle id="left_360" type="typeWE" route="left" depart="1311" />
    <vehicle id="right_361" type="typeWE" route="right" depart="1313" />
    <vehicle id="right_362" type="typeWE" route="right" depart="1319" />
    <vehicle id="left_363" type="typeWE" route="left" depart="1320" />
    <vehicle id="right_364" type="typeWE" route="right" depart="1329" />
    <vehicle id="right_365" type="typeWE" route="right" depart="1330" />
    <vehicle id="right_366" type="typeWE" route="right" depart="1331" />
    <vehicle id="right_367" type="typeWE" route="right" depart="1335" />
    <vehicle id="right_368" type="typeWE" route="right" depart="1337" />
    <vehicle id="up_369" type="typeNS" route="up" depart="1338" color="0,1,0"/>
    <vehicle id="right_370" type="typeWE" route="right" depart="1342" />
    <vehicle id="up_371" type="typeNS" route="up" depart="1348" color="0,1,0"/>
    <vehicle id="left_372" type="typeWE" route="left" depart="1350" />
    <vehicle id="right_373" type="typeWE" route="right" depart="1356" />
    <vehicle id="up_374" type="typeNS" route="up" depart="1357" color="0,1,0"/>
    <vehicle id="right_375" type="typeWE" route="right" depart="1358" />
    <vehicle id="right_376" type="typeWE" route="right" depart="1375" />
    <vehicle id="left_377" type="typeWE" route="left" depart="1385" />
    <vehicle id="right_378" type="typeWE" route="right" depart="1386" />
    <vehicle id="down_379" type="typeNS" route="down" depart="1388" color="1,0,0"/>
    <vehicle id="right_380" type="typeWE" route="right" depart="1399" />
    <vehicle id="right_381" type="typeWE" route="right" depart="1400" />
    <vehicle id="down_382" type="typeNS" route="down" depart="1400" color="1,0,0"/>
    <vehicle id="right_383" type="typeWE" route="right" depart="1401" />
    <vehicle id="left_384" type="typeWE" route="left" depart="1404" />
    <vehicle id="right_385" type="typeWE" route="right" depart="1406" />
    <vehicle id="right_386" type="typeWE" route="right" depart="1407" />
    <vehicle id="down_387" type="typeNS" route="down" depart="1412" color="1,0,0"/>
    <vehicle id="left_388" type="typeWE" route="left" depart="1421" />
    <vehicle id="up_389" type="typeNS" route="up" depart="1428" color="0,1,0"/>
    <vehicle id="left_390" type="typeWE" route="left" depart="1429" />
    <vehicle id="right_391" type="typeWE" route="right" depart="1430" />
    <vehicle id="right_392" type="typeWE" route="right" depart="1432" />
    <vehicle id="right_393" type="typeWE" route="right" depart="1435" />
    <vehicle id="left_394" type="typeWE" route="left" depart="1438" />
    <vehicle id="right_395" type="typeWE" route="right" depart="1440" />
    <vehicle id="left_396" type="typeWE" route="left" depart="1443" />
    <vehicle id="right_397" type="typeWE" route="right" depart="1451" />
    <vehicle id="right_398" type="typeWE" route="right" depart="1465" />